<?xml version="1.0" encoding="UTF-8"?>

<!--
  SUMO Configuration File
  Compatible with: SUMO 1.6.0
-->

<configuration xmlns:xsi="http://www.w3.org/2001/XMLSchema-instance" 
               xsi:noNamespaceSchemaLocation="http://sumo.dlr.de/xsd/sumoConfiguration.xsd">

    <input>
        <net-file value="emergencyLane.net.xml"/>
        <route-files value="emergencyLane.trips.xml"/>
    </input>

    <time>
        <begin value="0"/>
        <end value="200"/>
    </time>

    <processing>
        <time-to-teleport value="-1"/>
    </processing>

    <routing>
        <device.rerouting.adaptation-steps value="18"/>
        <device.rerouting.adaptation-interval value="10"/>
    </routing>

    <report>
        <verbose value="true"/>
        <no-step-log value="false"/>
    </report>

</configuration>
