[General]
cmdenv-express-mode = false
cmdenv-autoflush = true
**.cmdenv-log-level = info
network = EmergencyLaneScenario

[Config DebugTest]
sim-time-limit = 200s

*.playgroundSizeX = 3000m
*.playgroundSizeY = 3000m
*.playgroundSizeZ = 50m

*.manager.updateInterval = 0.1s
*.manager.host = "localhost"
*.manager.port = 9999
*.manager.autoShutdown = true
*.manager.launchConfig = xmldoc("test_single_ambulance.rou.xml")
*.manager.moduleType = "org.car2x.veins.nodes.Car"
*.manager.moduleName = "node"

# Application
*.node[*].applType = "MyVeinsApp"
*.node[*].appl.headerLength = 80 bit
*.node[*].appl.sendBeacons = true
*.node[*].appl.dataOnSch = true
*.node[*].appl.beaconInterval = 0.5s
*.node[*].appl.operationMode = 0
*.node[*].appl.isMalicious = false
*.node[*].appl.attackProbability = 0.0

# Network
*.connectionManager.sendDirect = true
*.connectionManager.pMax = 20mW
*.connectionManager.maxInterfDist = 2600m
*.**.nic.mac1609_4.useServiceChannel = false
*.**.nic.mac1609_4.txPower = 20mW
*.**.nic.mac1609_4.bitrate = 6Mbps
*.**.nic.phy80211p.minPowerLevel = -110dBm
*.**.nic.phy80211p.useNoiseFloor = true
*.**.nic.phy80211p.noiseFloor = -98dBm
*.**.nic.phy80211p.decider = xmldoc("config.xml")
*.**.nic.phy80211p.analogueModels = xmldoc("config.xml")
*.**.nic.phy80211p.usePropagationDelay = true
*.**.nic.phy80211p.antenna = xmldoc("antenna.xml", "/root/Antenna[@id='monopole']")

# RSU Setup
*.numRsu = 1
*.rsu[*].applType = "RSUApp"
*.rsu[0].mobility.x = 467
*.rsu[0].mobility.y = 442
*.rsu[0].mobility.z = 5
