<?xml version="1.0" encoding="UTF-8"?>

<!-- generated on 02/11/26 22:24:11 by Eclipse SUMO netconvert Version 1.6.0
<configuration xmlns:xsi="http://www.w3.org/2001/XMLSchema-instance" xsi:noNamespaceSchemaLocation="http://sumo.dlr.de/xsd/netconvertConfiguration.xsd">

    <input>
        <sumo-net-file value="realworld.net.xml"/>
    </input>

    <output>
        <output-file value="realworld.net.xml"/>
    </output>

    <processing>
        <geometry.min-radius.fix.railways value="false"/>
        <geometry.max-grade.fix value="false"/>
        <offset.disable-normalization value="true"/>
        <lefthand value="false"/>
    </processing>

    <junctions>
        <no-turnarounds value="true"/>
        <junctions.corner-detail value="5"/>
        <junctions.internal-link-detail value="20"/>
        <junctions.limit-turn-speed value="5.5"/>
        <rectangular-lane-cut value="false"/>
    </junctions>

    <pedestrian>
        <walkingareas value="false"/>
    </pedestrian>

    <report>
        <aggregate-warnings value="5"/>
    </report>

</configuration>
-->

<net version="1.6" junctionCornerDetail="5" junctionLinkDetail="20" limitTurnSpeed="5.50" xmlns:xsi="http://www.w3.org/2001/XMLSchema-instance" xsi:noNamespaceSchemaLocation="http://sumo.dlr.de/xsd/net_file.xsd">

    <location netOffset="-774257.78,-1431471.00" convBoundary="0.00,0.00,1184.38,833.90" origBoundary="77.504551,12.906133,77.600228,12.988030" projParameter="+proj=utm +zone=43 +ellps=WGS84 +datum=WGS84 +units=m +no_defs"/>

    <type id="highway.bridleway" priority="1" numLanes="1" speed="2.78" allow="pedestrian" oneway="1" width="2.00"/>
    <type id="highway.bus_guideway" priority="1" numLanes="1" speed="27.78" allow="bus" oneway="1"/>
    <type id="highway.cycleway" priority="1" numLanes="1" speed="8.33" allow="bicycle" oneway="0" width="1.00"/>
    <type id="highway.footway" priority="1" numLanes="1" speed="2.78" allow="pedestrian" oneway="1" width="2.00"/>
    <type id="highway.ford" priority="1" numLanes="1" speed="2.78" allow="army" oneway="0"/>
    <type id="highway.living_street" priority="2" numLanes="1" speed="2.78" disallow="tram rail_urban rail rail_electric rail_fast ship" oneway="0"/>
    <type id="highway.motorway" priority="14" numLanes="2" speed="39.44" allow="private emergency authority army vip passenger hov taxi bus coach delivery truck trailer motorcycle evehicle custom1 custom2" oneway="1"/>
    <type id="highway.motorway_link" priority="9" numLanes="1" speed="22.22" allow="private emergency authority army vip passenger hov taxi bus coach delivery truck trailer motorcycle evehicle custom1 custom2" oneway="1"/>
    <type id="highway.path" priority="1" numLanes="1" speed="2.78" allow="pedestrian bicycle" oneway="1" width="2.00"/>
    <type id="highway.pedestrian" priority="1" numLanes="1" speed="2.78" allow="pedestrian" oneway="1" width="2.00"/>
    <type id="highway.primary" priority="12" numLanes="2" speed="27.78" disallow="tram rail_urban rail rail_electric rail_fast ship" oneway="0"/>
    <type id="highway.primary_link" priority="7" numLanes="1" speed="22.22" disallow="tram rail_urban rail rail_electric rail_fast ship" oneway="0"/>
    <type id="highway.raceway" priority="15" numLanes="2" speed="83.33" allow="vip" oneway="0"/>
    <type id="highway.residential" priority="3" numLanes="1" speed="13.89" disallow="tram rail_urban rail rail_electric rail_fast ship" oneway="0"/>
    <type id="highway.secondary" priority="11" numLanes="1" speed="27.78" disallow="tram rail_urban rail rail_electric rail_fast ship" oneway="0"/>
    <type id="highway.secondary_link" priority="6" numLanes="1" speed="22.22" disallow="tram rail_urban rail rail_electric rail_fast ship" oneway="0"/>
    <type id="highway.service" priority="1" numLanes="1" speed="5.56" allow="pedestrian delivery bicycle" oneway="0"/>
    <type id="highway.stairs" priority="1" numLanes="1" speed="1.39" allow="pedestrian" oneway="1" width="2.00"/>
    <type id="highway.step" priority="1" numLanes="1" speed="1.39" allow="pedestrian" oneway="1" width="2.00"/>
    <type id="highway.steps" priority="1" numLanes="1" speed="1.39" allow="pedestrian" oneway="1" width="2.00"/>
    <type id="highway.tertiary" priority="10" numLanes="1" speed="22.22" disallow="tram rail_urban rail rail_electric rail_fast ship" oneway="0"/>
    <type id="highway.tertiary_link" priority="5" numLanes="1" speed="22.22" disallow="tram rail_urban rail rail_electric rail_fast ship" oneway="0"/>
    <type id="highway.track" priority="1" numLanes="1" speed="5.56" disallow="tram rail_urban rail rail_electric rail_fast ship" oneway="0"/>
    <type id="highway.trunk" priority="13" numLanes="2" speed="27.78" disallow="pedestrian bicycle tram rail_urban rail rail_electric rail_fast ship" oneway="0"/>
    <type id="highway.trunk_link" priority="8" numLanes="1" speed="22.22" disallow="pedestrian bicycle tram rail_urban rail rail_electric rail_fast ship" oneway="0"/>
    <type id="highway.unclassified" priority="4" numLanes="1" speed="13.89" disallow="tram rail_urban rail rail_electric rail_fast ship" oneway="0"/>
    <type id="highway.unsurfaced" priority="1" numLanes="1" speed="8.33" disallow="tram rail_urban rail rail_electric rail_fast ship" oneway="0"/>
    <type id="railway.highspeed" priority="21" numLanes="1" speed="69.44" allow="rail_fast" oneway="1"/>
    <type id="railway.light_rail" priority="19" numLanes="1" speed="27.78" allow="rail_urban" oneway="1"/>
    <type id="railway.preserved" priority="16" numLanes="1" speed="27.78" allow="rail" oneway="1"/>
    <type id="railway.rail" priority="20" numLanes="1" speed="44.44" allow="rail" oneway="1"/>
    <type id="railway.subway" priority="18" numLanes="1" speed="27.78" allow="rail_urban" oneway="1"/>
    <type id="railway.tram" priority="17" numLanes="1" speed="13.89" allow="tram" oneway="1"/>

    <edge id=":10001906065_0" function="internal">
        <lane id=":10001906065_0_0" index="0" allow="private emergency authority army vip passenger hov taxi bus coach delivery truck trailer motorcycle evehicle custom1 custom2" speed="6.25" length="8.02" shape="432.73,344.96 432.96,344.40 433.16,343.85 433.33,343.33 433.47,342.82 433.57,342.34 433.65,341.88 433.69,341.45 433.70,341.03 433.68,340.64 433.63,340.26 433.54,339.91 433.43,339.58 433.28,339.28 433.10,338.99 432.89,338.73 432.65,338.48 432.37,338.26 432.07,338.06 431.73,337.89"/>
    </edge>
    <edge id=":10001906065_1" function="internal">
        <lane id=":10001906065_1_0" index="0" allow="private emergency authority army vip passenger hov taxi bus coach delivery truck trailer motorcycle evehicle custom1 custom2" speed="22.22" length="11.25" shape="432.73,344.96 433.06,344.20 433.37,343.51 433.66,342.90 433.94,342.34 434.20,341.84 434.46,341.39 434.71,340.97 434.96,340.59 435.23,340.22 435.50,339.87 435.78,339.51 436.08,339.16 436.41,338.79 436.76,338.39 437.15,337.97 437.57,337.51 438.03,337.00 438.53,336.44 439.08,335.81"/>
        <lane id=":10001906065_1_1" index="1" allow="private emergency authority army vip passenger hov taxi bus coach delivery truck trailer motorcycle evehicle custom1 custom2" speed="16.59" length="11.25" shape="435.31,347.05 435.64,346.29 435.93,345.59 436.19,344.96 436.43,344.37 436.65,343.84 436.86,343.35 437.07,342.90 437.28,342.47 437.50,342.07 437.73,341.69 437.99,341.31 438.27,340.94 438.58,340.57 438.94,340.18 439.33,339.79 439.79,339.37 440.29,338.92 440.87,338.44 441.51,337.92"/>
    </edge>
    <edge id=":10053214353_0" function="internal">
        <lane id=":10053214353_0_0" index="0" disallow="tram rail_urban rail rail_electric rail_fast ship" speed="13.89" length="14.42" shape="809.21,357.93 794.89,356.21"/>
    </edge>
    <edge id=":10053214353_1" function="internal">
        <lane id=":10053214353_1_0" index="0" disallow="tram rail_urban rail rail_electric rail_fast ship" speed="7.88" length="6.32" shape="809.21,357.93 808.28,357.79 807.41,357.61 806.59,357.38 805.84,357.11 805.15,356.80 804.53,356.44 803.96,356.04 803.45,355.60"/>
    </edge>
    <edge id=":10053214353_2" function="internal">
        <lane id=":10053214353_2_0" index="0" disallow="tram rail_urban rail rail_electric rail_fast ship" speed="3.67" length="2.28" shape="809.21,357.93 808.91,357.72 808.65,357.52 808.43,357.32 808.24,357.13 808.08,356.94 807.96,356.76 807.87,356.58 807.82,356.40 807.81,356.23"/>
    </edge>
    <edge id=":10053214353_9" function="internal">
        <lane id=":10053214353_9_0" index="0" disallow="tram rail_urban rail rail_electric rail_fast ship" speed="7.88" length="8.30" shape="803.45,355.60 803.01,355.11 802.62,354.57 802.30,354.00 802.04,353.38 801.84,352.71 801.70,352.00 801.62,351.25 801.60,350.45 801.65,349.61 801.75,348.73 801.92,347.80"/>
    </edge>
    <edge id=":10053214353_10" function="internal">
        <lane id=":10053214353_10_0" index="0" disallow="tram rail_urban rail rail_electric rail_fast ship" speed="3.67" length="2.45" shape="807.81,356.23 807.83,356.06 807.88,355.90 807.97,355.74 808.10,355.59 808.26,355.44 808.45,355.29 808.69,355.15 808.95,355.01 809.25,354.88 809.59,354.75"/>
    </edge>
    <edge id=":10053214353_3" function="internal">
        <lane id=":10053214353_3_0" index="0" disallow="tram rail_urban rail rail_electric rail_fast ship" speed="6.35" length="9.10" shape="805.05,348.44 804.95,349.02 804.88,349.57 804.86,350.10 804.87,350.59 804.92,351.06 805.00,351.50 805.13,351.92 805.29,352.30 805.49,352.66 805.73,352.99 806.01,353.30 806.32,353.58 806.67,353.83 807.07,354.05 807.49,354.24 807.96,354.41 808.47,354.55 809.01,354.66 809.59,354.75"/>
    </edge>
    <edge id=":10053214353_4" function="internal">
        <lane id=":10053214353_4_0" index="0" disallow="tram rail_urban rail rail_electric rail_fast ship" speed="8.31" length="14.41" shape="805.05,348.44 804.84,349.34 804.60,350.18 804.32,350.97 804.00,351.70 803.64,352.38 803.25,353.01 802.83,353.58 802.37,354.10 801.87,354.56 801.33,354.97 800.76,355.32 800.15,355.62 799.51,355.87 798.83,356.06 798.12,356.20 797.36,356.29 796.57,356.32 795.75,356.29 794.89,356.21"/>
    </edge>
    <edge id=":10053214353_5" function="internal">
        <lane id=":10053214353_5_0" index="0" disallow="tram rail_urban rail rail_electric rail_fast ship" speed="3.67" length="4.73" shape="805.05,348.44 804.82,348.72 804.60,348.97 804.38,349.18 804.18,349.35 803.98,349.49 803.78,349.59 803.60,349.66 803.42,349.70 803.24,349.70 803.08,349.67 802.92,349.60 802.77,349.49 802.63,349.36 802.49,349.18 802.36,348.97 802.24,348.73 802.13,348.46 802.02,348.14 801.92,347.80"/>
    </edge>
    <edge id=":10053214353_6" function="internal">
        <lane id=":10053214353_6_0" index="0" disallow="tram rail_urban rail rail_electric rail_fast ship" speed="6.87" length="9.53" shape="795.27,353.04 795.83,353.09 796.37,353.10 796.88,353.08 797.37,353.02 797.84,352.93 798.28,352.79 798.70,352.63 799.10,352.42 799.47,352.19 799.82,351.91 800.15,351.60 800.45,351.25 800.73,350.86 800.99,350.44 801.22,349.99 801.43,349.49 801.61,348.96 801.78,348.40 801.92,347.80"/>
    </edge>
    <edge id=":10053214353_7" function="internal">
        <lane id=":10053214353_7_0" index="0" disallow="tram rail_urban rail rail_electric rail_fast ship" speed="13.89" length="14.42" shape="795.27,353.04 809.59,354.75"/>
    </edge>
    <edge id=":10053214353_8" function="internal">
        <lane id=":10053214353_8_0" index="0" disallow="tram rail_urban rail rail_electric rail_fast ship" speed="3.67" length="2.28" shape="795.27,353.04 795.57,353.24 795.83,353.44 796.05,353.64 796.25,353.83 796.40,354.02 796.52,354.20 796.61,354.38 796.66,354.56 796.67,354.73"/>
    </edge>
    <edge id=":10053214353_11" function="internal">
        <lane id=":10053214353_11_0" index="0" disallow="tram rail_urban rail rail_electric rail_fast ship" speed="3.67" length="2.45" shape="796.67,354.73 796.65,354.90 796.60,355.06 796.51,355.22 796.38,355.37 796.22,355.53 796.03,355.67 795.79,355.81 795.53,355.95 795.23,356.08 794.89,356.21"/>
    </edge>
    <edge id=":10053214354_0" function="internal">
        <lane id=":10053214354_0_0" index="0" disallow="tram rail_urban rail rail_electric rail_fast ship" speed="6.46" length="9.09" shape="817.30,317.10 816.73,316.98 816.19,316.90 815.67,316.85 815.18,316.84 814.71,316.88 814.26,316.95 813.84,317.05 813.44,317.20 813.07,317.38 812.72,317.60 812.39,317.86 812.09,318.16 811.81,318.50 811.56,318.87 811.33,319.28 811.13,319.73 810.95,320.22 810.79,320.75 810.66,321.31"/>
    </edge>
    <edge id=":10053214354_1" function="internal">
        <lane id=":10053214354_1_0" index="0" disallow="tram rail_urban rail rail_electric rail_fast ship" speed="13.89" length="14.41" shape="817.30,317.10 803.29,313.73"/>
    </edge>
    <edge id=":10053214354_2" function="internal">
        <lane id=":10053214354_2_0" index="0" disallow="tram rail_urban rail rail_electric rail_fast ship" speed="3.67" length="2.28" shape="817.30,317.10 817.03,316.86 816.79,316.63 816.59,316.41 816.42,316.19 816.29,315.99 816.19,315.79 816.13,315.60 816.10,315.42 816.10,315.25"/>
    </edge>
    <edge id=":10053214354_9" function="internal">
        <lane id=":10053214354_9_0" index="0" disallow="tram rail_urban rail rail_electric rail_fast ship" speed="3.67" length="2.45" shape="816.10,315.25 816.14,315.09 816.22,314.93 816.32,314.78 816.47,314.65 816.64,314.52 816.86,314.39 817.10,314.28 817.38,314.17 817.70,314.08 818.05,313.99"/>
    </edge>
    <edge id=":10053214354_3" function="internal">
        <lane id=":10053214354_3_0" index="0" disallow="tram rail_urban rail rail_electric rail_fast ship" speed="13.89" length="14.41" shape="804.04,310.62 818.05,313.99"/>
    </edge>
    <edge id=":10053214354_4" function="internal">
        <lane id=":10053214354_4_0" index="0" disallow="tram rail_urban rail rail_electric rail_fast ship" speed="8.13" length="6.11" shape="804.04,310.62 804.90,310.85 805.70,311.12 806.44,311.42 807.13,311.76 807.76,312.14 808.33,312.56 808.85,313.01 809.31,313.50"/>
    </edge>
    <edge id=":10053214354_5" function="internal">
        <lane id=":10053214354_5_0" index="0" disallow="tram rail_urban rail rail_electric rail_fast ship" speed="3.67" length="2.28" shape="804.04,310.62 804.31,310.86 804.55,311.09 804.75,311.31 804.92,311.52 805.05,311.73 805.15,311.92 805.21,312.11 805.24,312.29 805.24,312.46"/>
    </edge>
    <edge id=":10053214354_10" function="internal">
        <lane id=":10053214354_10_0" index="0" disallow="tram rail_urban rail rail_electric rail_fast ship" speed="8.13" length="8.22" shape="809.31,313.50 809.72,314.02 810.07,314.59 810.36,315.19 810.59,315.82 810.77,316.50 810.89,317.21 810.96,317.95 810.97,318.74 810.92,319.56 810.82,320.41 810.66,321.31"/>
    </edge>
    <edge id=":10053214354_11" function="internal">
        <lane id=":10053214354_11_0" index="0" disallow="tram rail_urban rail rail_electric rail_fast ship" speed="3.67" length="2.45" shape="805.24,312.46 805.20,312.63 805.12,312.78 805.02,312.93 804.87,313.07 804.70,313.20 804.48,313.32 804.24,313.44 803.96,313.54 803.64,313.64 803.29,313.73"/>
    </edge>
    <edge id=":10053214354_6" function="internal">
        <lane id=":10053214354_6_0" index="0" disallow="tram rail_urban rail rail_electric rail_fast ship" speed="6.65" length="9.25" shape="807.52,320.66 807.63,320.08 807.70,319.52 807.73,318.99 807.72,318.48 807.68,318.00 807.61,317.53 807.49,317.10 807.34,316.68 807.16,316.30 806.93,315.93 806.67,315.59 806.38,315.27 806.05,314.98 805.68,314.71 805.27,314.47 804.83,314.25 804.36,314.05 803.84,313.88 803.29,313.73"/>
    </edge>
    <edge id=":10053214354_7" function="internal">
        <lane id=":10053214354_7_0" index="0" disallow="tram rail_urban rail rail_electric rail_fast ship" speed="7.97" length="14.41" shape="807.52,320.66 807.73,319.77 807.98,318.94 808.27,318.16 808.59,317.45 808.96,316.80 809.36,316.20 809.80,315.67 810.27,315.20 810.79,314.79 811.34,314.44 811.94,314.15 812.57,313.92 813.23,313.75 813.94,313.64 814.69,313.58 815.47,313.60 816.29,313.67 817.15,313.80 818.05,313.99"/>
    </edge>
    <edge id=":10053214354_8" function="internal">
        <lane id=":10053214354_8_0" index="0" disallow="tram rail_urban rail rail_electric rail_fast ship" speed="3.67" length="4.73" shape="807.52,320.66 807.75,320.38 807.98,320.14 808.19,319.93 808.40,319.76 808.60,319.62 808.79,319.51 808.98,319.44 809.16,319.41 809.33,319.41 809.50,319.44 809.65,319.51 809.81,319.61 809.95,319.75 810.08,319.92 810.21,320.13 810.34,320.37 810.45,320.65 810.56,320.96 810.66,321.31"/>
    </edge>
    <edge id=":10053214357_0" function="internal">
        <lane id=":10053214357_0_0" index="0" disallow="tram rail_urban rail rail_electric rail_fast ship" speed="13.89" length="14.43" shape="789.05,457.68 774.70,456.14"/>
    </edge>
    <edge id=":10053214357_1" function="internal">
        <lane id=":10053214357_1_0" index="0" disallow="tram rail_urban rail rail_electric rail_fast ship" speed="8.07" length="6.14" shape="789.05,457.68 788.16,457.57 787.32,457.40 786.54,457.20 785.81,456.95 785.13,456.66 784.50,456.32 783.93,455.94 783.41,455.52"/>
    </edge>
    <edge id=":10053214357_2" function="internal">
        <lane id=":10053214357_2_0" index="0" disallow="tram rail_urban rail rail_electric rail_fast ship" speed="3.67" length="2.28" shape="789.05,457.68 788.75,457.48 788.48,457.29 788.25,457.09 788.06,456.90 787.90,456.72 787.78,456.53 787.69,456.36 787.64,456.18 787.62,456.01"/>
    </edge>
    <edge id=":10053214357_9" function="internal">
        <lane id=":10053214357_9_0" index="0" disallow="tram rail_urban rail rail_electric rail_fast ship" speed="8.07" length="8.17" shape="783.41,455.52 782.94,455.05 782.53,454.54 782.17,453.99 781.86,453.39 781.60,452.75 781.39,452.06 781.24,451.33 781.14,450.56 781.10,449.74 781.10,448.88 781.16,447.98"/>
    </edge>
    <edge id=":10053214357_10" function="internal">
        <lane id=":10053214357_10_0" index="0" disallow="tram rail_urban rail rail_electric rail_fast ship" speed="3.67" length="2.45" shape="787.62,456.01 787.64,455.84 787.69,455.68 787.78,455.52 787.90,455.36 788.06,455.21 788.25,455.06 788.48,454.91 788.75,454.77 789.04,454.63 789.38,454.50"/>
    </edge>
    <edge id=":10053214357_3" function="internal">
        <lane id=":10053214357_3_0" index="0" disallow="tram rail_urban rail rail_electric rail_fast ship" speed="6.58" length="9.16" shape="784.35,448.27 784.31,448.85 784.31,449.40 784.34,449.93 784.40,450.42 784.50,450.89 784.63,451.33 784.79,451.75 784.99,452.13 785.22,452.49 785.48,452.81 785.78,453.11 786.11,453.39 786.48,453.63 786.88,453.84 787.31,454.03 787.78,454.19 788.28,454.32 788.81,454.42 789.38,454.50"/>
    </edge>
    <edge id=":10053214357_4" function="internal">
        <lane id=":10053214357_4_0" index="0" disallow="tram rail_urban rail rail_electric rail_fast ship" speed="7.99" length="14.35" shape="784.35,448.27 784.24,449.17 784.09,450.02 783.89,450.82 783.65,451.56 783.36,452.25 783.03,452.88 782.66,453.46 782.24,453.98 781.78,454.45 781.27,454.86 780.72,455.22 780.12,455.53 779.48,455.78 778.79,455.98 778.06,456.12 777.29,456.21 776.47,456.24 775.61,456.22 774.70,456.14"/>
    </edge>
    <edge id=":10053214357_5" function="internal">
        <lane id=":10053214357_5_0" index="0" disallow="tram rail_urban rail rail_electric rail_fast ship" speed="3.67" length="4.73" shape="784.35,448.27 784.15,448.57 783.96,448.84 783.77,449.07 783.58,449.27 783.40,449.43 783.22,449.55 783.04,449.64 782.86,449.70 782.69,449.72 782.53,449.70 782.36,449.65 782.20,449.57 782.04,449.45 781.89,449.29 781.74,449.10 781.59,448.87 781.44,448.61 781.30,448.31 781.16,447.98"/>
    </edge>
    <edge id=":10053214357_6" function="internal">
        <lane id=":10053214357_6_0" index="0" disallow="tram rail_urban rail rail_electric rail_fast ship" speed="6.49" length="9.09" shape="775.05,452.96 775.63,453.01 776.17,453.02 776.69,453.00 777.18,452.95 777.64,452.86 778.08,452.73 778.48,452.57 778.86,452.38 779.21,452.15 779.53,451.89 779.83,451.59 780.09,451.26 780.33,450.90 780.54,450.49 780.72,450.06 780.87,449.59 781.00,449.09 781.09,448.55 781.16,447.98"/>
    </edge>
    <edge id=":10053214357_7" function="internal">
        <lane id=":10053214357_7_0" index="0" disallow="tram rail_urban rail rail_electric rail_fast ship" speed="13.89" length="14.41" shape="775.05,452.96 789.38,454.50"/>
    </edge>
    <edge id=":10053214357_8" function="internal">
        <lane id=":10053214357_8_0" index="0" disallow="tram rail_urban rail rail_electric rail_fast ship" speed="3.67" length="2.28" shape="775.05,452.96 775.35,453.17 775.61,453.36 775.84,453.56 776.03,453.75 776.19,453.94 776.31,454.12 776.40,454.30 776.45,454.47 776.47,454.65"/>
    </edge>
    <edge id=":10053214357_11" function="internal">
        <lane id=":10053214357_11_0" index="0" disallow="tram rail_urban rail rail_electric rail_fast ship" speed="3.67" length="2.45" shape="776.47,454.65 776.45,454.81 776.40,454.98 776.31,455.14 776.19,455.29 776.03,455.44 775.83,455.59 775.60,455.74 775.34,455.88 775.04,456.01 774.70,456.14"/>
    </edge>
    <edge id=":11050323991_0" function="internal">
        <lane id=":11050323991_0_0" index="0" allow="private emergency authority army vip passenger hov taxi bus coach delivery truck trailer motorcycle evehicle custom1 custom2" speed="11.11" length="9.06" shape="405.25,371.38 404.88,371.94 404.55,372.44 404.25,372.89 403.98,373.30 403.73,373.67 403.51,374.02 403.30,374.35 403.11,374.66 402.92,374.96 402.74,375.27 402.56,375.57 402.38,375.89 402.20,376.23 402.00,376.60 401.79,376.99 401.56,377.43 401.30,377.90 401.03,378.44 400.72,379.03"/>
        <lane id=":11050323991_0_1" index="1" allow="private emergency authority army vip passenger hov taxi bus coach delivery truck trailer motorcycle evehicle custom1 custom2" speed="11.11" length="9.06" shape="402.59,369.61 402.20,370.18 401.86,370.70 401.55,371.17 401.27,371.60 401.01,371.99 400.78,372.35 400.56,372.69 400.36,373.01 400.17,373.32 399.98,373.64 399.80,373.96 399.61,374.29 399.42,374.64 399.21,375.02 398.99,375.43 398.75,375.88 398.49,376.38 398.20,376.93 397.88,377.54"/>
    </edge>
    <edge id=":11050323991_2" function="internal">
        <lane id=":11050323991_2_0" index="0" allow="delivery" speed="6.16" length="7.66" shape="402.59,369.61 402.23,370.13 401.87,370.62 401.52,371.08 401.18,371.49 400.84,371.87 400.51,372.22 400.18,372.52 399.86,372.79 399.54,373.02 399.23,373.22 398.92,373.38 398.62,373.50 398.33,373.59 398.04,373.63 397.76,373.65 397.48,373.62 397.21,373.56 396.94,373.46 396.68,373.33"/>
    </edge>
    <edge id=":11050323991_3" function="internal">
        <lane id=":11050323991_3_0" index="0" allow="delivery" speed="6.16" length="7.65" shape="398.32,370.58 398.56,370.74 398.77,370.93 398.96,371.14 399.11,371.37 399.24,371.62 399.33,371.90 399.40,372.20 399.43,372.52 399.44,372.87 399.42,373.23 399.36,373.62 399.28,374.03 399.17,374.47 399.03,374.92 398.86,375.40 398.66,375.90 398.43,376.43 398.17,376.97 397.88,377.54"/>
    </edge>
    <edge id=":11050323991_4" function="internal">
        <lane id=":11050323991_4_0" index="0" allow="pedestrian delivery bicycle" speed="3.67" length="4.73" shape="398.32,370.58 398.50,370.88 398.66,371.17 398.79,371.45 398.89,371.70 398.95,371.93 398.99,372.15 398.99,372.35 398.97,372.53 398.91,372.69 398.83,372.84 398.71,372.97 398.56,373.07 398.39,373.16 398.18,373.24 397.94,373.29 397.67,373.33 397.37,373.35 397.04,373.35 396.68,373.33"/>
    </edge>
    <edge id=":11050323994_0" function="internal">
        <lane id=":11050323994_0_0" index="0" allow="pedestrian delivery bicycle" speed="5.56" length="9.29" shape="384.52,371.20 379.75,379.18"/>
    </edge>
    <edge id=":11050323994_1" function="internal">
        <lane id=":11050323994_1_0" index="0" allow="pedestrian delivery bicycle" speed="5.56" length="10.81" shape="384.52,371.20 384.14,371.79 383.74,372.32 383.34,372.79 382.92,373.21 382.50,373.58 382.06,373.89 381.62,374.14 381.16,374.33 380.70,374.47 380.22,374.56 379.74,374.58 379.24,374.56 378.74,374.47 378.23,374.33 377.70,374.14 377.17,373.89 376.62,373.58 376.07,373.22 375.51,372.80"/>
    </edge>
    <edge id=":11050323994_2" function="internal">
        <lane id=":11050323994_2_0" index="0" allow="pedestrian delivery bicycle" speed="3.67" length="4.73" shape="384.52,371.20 384.21,371.38 383.92,371.54 383.65,371.66 383.39,371.75 383.16,371.81 382.94,371.85 382.74,371.85 382.56,371.82 382.40,371.76 382.25,371.67 382.13,371.55 382.02,371.40 381.93,371.22 381.87,371.02 381.82,370.78 381.78,370.51 381.77,370.21 381.78,369.88 381.80,369.52"/>
    </edge>
    <edge id=":11050323994_3" function="internal">
        <lane id=":11050323994_3_0" index="0" allow="pedestrian delivery bicycle" speed="4.94" length="5.18" shape="377.48,370.28 377.75,370.48 378.02,370.66 378.28,370.80 378.54,370.92 378.79,371.02 379.03,371.08 379.27,371.12 379.51,371.14 379.74,371.12 379.97,371.08 380.19,371.02 380.41,370.92 380.62,370.80 380.83,370.66 381.04,370.48 381.23,370.28 381.43,370.05 381.62,369.80 381.80,369.52"/>
    </edge>
    <edge id=":11050323994_4" function="internal">
        <lane id=":11050323994_4_0" index="0" allow="pedestrian delivery bicycle" speed="5.56" length="10.21" shape="377.48,370.28 378.00,370.70 378.47,371.13 378.89,371.57 379.27,372.00 379.61,372.45 379.91,372.90 380.16,373.35 380.36,373.81 380.53,374.27 380.65,374.74 380.72,375.21 380.75,375.69 380.74,376.17 380.69,376.66 380.59,377.15 380.45,377.65 380.26,378.15 380.03,378.66 379.75,379.18"/>
    </edge>
    <edge id=":11050323994_5" function="internal">
        <lane id=":11050323994_5_0" index="0" allow="pedestrian delivery bicycle" speed="3.67" length="4.73" shape="377.48,370.28 377.63,370.61 377.75,370.92 377.84,371.20 377.90,371.47 377.94,371.71 377.95,371.93 377.93,372.13 377.88,372.30 377.80,372.46 377.70,372.59 377.57,372.70 377.41,372.79 377.22,372.86 377.00,372.90 376.76,372.92 376.49,372.93 376.19,372.90 375.86,372.86 375.51,372.80"/>
    </edge>
    <edge id=":11050323994_6" function="internal">
        <lane id=":11050323994_6_0" index="0" allow="pedestrian delivery bicycle" speed="5.54" length="5.56" shape="376.98,377.58 377.12,377.32 377.23,377.06 377.32,376.80 377.39,376.54 377.43,376.28 377.45,376.03 377.45,375.77 377.42,375.52 377.36,375.26 377.29,375.01 377.19,374.76 377.06,374.51 376.91,374.26 376.74,374.01 376.54,373.77 376.32,373.52 376.07,373.28 375.80,373.04 375.51,372.80"/>
    </edge>
    <edge id=":11050323994_7" function="internal">
        <lane id=":11050323994_7_0" index="0" allow="pedestrian delivery bicycle" speed="5.56" length="9.40" shape="376.98,377.58 381.80,369.52"/>
    </edge>
    <edge id=":11050323994_8" function="internal">
        <lane id=":11050323994_8_0" index="0" allow="pedestrian delivery bicycle" speed="3.67" length="4.73" shape="376.98,377.58 377.28,377.39 377.57,377.23 377.84,377.10 378.09,377.00 378.33,376.93 378.54,376.89 378.74,376.88 378.92,376.90 379.09,376.95 379.23,377.04 379.36,377.15 379.47,377.30 379.57,377.47 379.64,377.68 379.70,377.92 379.74,378.19 379.76,378.49 379.77,378.82 379.75,379.18"/>
    </edge>
    <edge id=":11050323995_0" function="internal">
        <lane id=":11050323995_0_0" index="0" allow="pedestrian delivery bicycle" speed="3.67" length="4.73" shape="355.29,421.81 354.98,422.00 354.70,422.16 354.43,422.29 354.17,422.39 353.94,422.46 353.72,422.50 353.52,422.51 353.34,422.49 353.18,422.44 353.03,422.35 352.90,422.24 352.79,422.09 352.70,421.92 352.62,421.71 352.57,421.47 352.53,421.20 352.50,420.90 352.50,420.57 352.51,420.21"/>
    </edge>
    <edge id=":11050324003_0" function="internal">
        <lane id=":11050324003_0_0" index="0" allow="pedestrian delivery bicycle" speed="3.67" length="4.73" shape="307.98,381.71 307.95,381.35 307.94,381.02 307.95,380.72 307.98,380.45 308.03,380.21 308.09,380.00 308.18,379.82 308.28,379.67 308.41,379.55 308.55,379.46 308.71,379.40 308.89,379.37 309.09,379.37 309.31,379.40 309.54,379.46 309.80,379.55 310.08,379.67 310.37,379.81 310.68,379.99"/>
    </edge>
    <edge id=":12059785439_0" function="internal">
        <lane id=":12059785439_0_0" index="0" disallow="pedestrian bicycle tram rail_urban rail rail_electric rail_fast ship" speed="13.89" length="9.75" shape="510.60,384.92 505.37,393.17"/>
        <lane id=":12059785439_0_1" index="1" disallow="pedestrian bicycle tram rail_urban rail rail_electric rail_fast ship" speed="13.89" length="9.75" shape="507.87,383.24 502.67,391.45"/>
    </edge>
    <edge id=":12059785439_2" function="internal">
        <lane id=":12059785439_2_0" index="0" allow="private emergency authority army vip passenger hov taxi bus coach delivery truck trailer motorcycle evehicle custom1 custom2" speed="16.40" length="10.21" shape="505.14,381.57 504.75,382.21 504.39,382.79 504.06,383.32 503.75,383.79 503.46,384.22 503.18,384.61 502.91,384.96 502.63,385.29 502.36,385.59 502.07,385.88 501.76,386.16 501.43,386.43 501.08,386.70 500.69,386.98 500.26,387.27 499.79,387.57 499.26,387.90 498.68,388.26 498.04,388.65"/>
    </edge>
    <edge id=":12059785439_3" function="internal">
        <lane id=":12059785439_3_0" index="0" allow="private emergency authority army vip passenger hov taxi bus coach delivery truck trailer motorcycle evehicle custom1 custom2" speed="15.15" length="8.68" shape="502.41,379.90 502.08,380.45 501.77,380.94 501.49,381.38 501.23,381.79 500.98,382.15 500.74,382.48 500.51,382.78 500.28,383.06 500.04,383.32 499.80,383.56 499.54,383.80 499.26,384.03 498.96,384.26 498.63,384.50 498.26,384.74 497.86,385.00 497.42,385.28 496.92,385.59 496.37,385.92"/>
    </edge>
    <edge id=":12059785442_0" function="internal">