<?xml version="1.0" encoding="UTF-8"?>
<routes xmlns:xsi="http://www.w3.org/2001/XMLSchema-instance" xsi:noNamespaceSchemaLocation="http://sumo.dlr.de/xsd/routes_file.xsd">
    <vType id="ambulance_type" vClass="emergency" maxSpeed="35.0" color="red" length="5.0" accel="3.0" decel="5.0"/>
    <vType id="car_type" vClass="passenger" maxSpeed="20.0" color="blue" length="4.5" accel="2.0" decel="4.0"/>
    
    <vehicle id="ambulance_0" type="ambulance_type" depart="20.0" departLane="1" departSpeed="max">
        <route edges="1352054307 691146203#0 -48627084#7 -48627084#6 -48627084#5 -48627084#4 -48627084#3 -48627084#2 -48627079#3 48627079#3 48627084#2 48627084#3 48627084#4 48627084#5 48627084#6 48627084#7 691146203#2"/>
    </vehicle>
    
    <vehicle id="car_0" type="car_type" depart="0.0" departLane="0" departSpeed="max"><route edges="1352054307 691146203#0 -48627084#7 -48627084#6 -48627084#5"/></vehicle>
    <vehicle id="car_1" type="car_type" depart="5.0" departLane="1" departSpeed="max"><route edges="1352054307 691146203#0 -48627084#7 -48627084#6 -48627084#5"/></vehicle>
    <vehicle id="car_2" type="car_type" depart="10.0" departLane="2" departSpeed="max"><route edges="1352054307 691146203#0 -48627084#7 -48627084#6 -48627084#5"/></vehicle>
    <vehicle id="car_3" type="car_type" depart="15.0" departLane="0" departSpeed="max"><route edges="1352054307 691146203#0 -48627084#7 -48627084#6 -48627084#5"/></vehicle>
    <vehicle id="car_4" type="car_type" depart="20.0" departLane="1" departSpeed="max"><route edges="1352054307 691146203#0 -48627084#7 -48627084#6 -48627084#5"/></vehicle>
    <vehicle id="car_5" type="car_type" depart="25.0" departLane="2" departSpeed="max"><route edges="1352054307 691146203#0 -48627084#7 -48627084#6 -48627084#5"/></vehicle>
    <vehicle id="car_6" type="car_type" depart="30.0" departLane="0" departSpeed="max"><route edges="1352054307 691146203#0 -48627084#7 -48627084#6 -48627084#5"/></vehicle>
    <vehicle id="car_7" type="car_type" depart="35.0" departLane="1" departSpeed="max"><route edges="1352054307 691146203#0 -48627084#7 -48627084#6 -48627084#5"/></vehicle>
    <vehicle id="car_8" type="car_type" depart="40.0" departLane="2" departSpeed="max"><route edges="1352054307 691146203#0 -48627084#7 -48627084#6 -48627084#5"/></vehicle>
    <vehicle id="car_9" type="car_type" depart="45.0" departLane="0" departSpeed="max"><route edges="1352054307 691146203#0 -48627084#7 -48627084#6 -48627084#5"/></vehicle>
    <vehicle id="car_10" type="car_type" depart="50.0" departLane="1" departSpeed="max"><route edges="1352054307 691146203#0 -48627084#7 -48627084#6 -48627084#5"/></vehicle>
    <vehicle id="car_11" type="car_type" depart="55.0" departLane="2" departSpeed="max"><route edges="1352054307 691146203#0 -48627084#7 -48627084#6 -48627084#5"/></vehicle>
    <vehicle id="car_12" type="car_type" depart="60.0" departLane="0" departSpeed="max"><route edges="1352054307 691146203#0 -48627084#7 -48627084#6 -48627084#5"/></vehicle>
    <vehicle id="car_13" type="car_type" depart="65.0" departLane="1" departSpeed="max"><route edges="1352054307 691146203#0 -48627084#7 -48627084#6 -48627084#5"/></vehicle>
    <vehicle id="car_14" type="car_type" depart="70.0" departLane="2" departSpeed="max"><route edges="1352054307 691146203#0 -48627084#7 -48627084#6 -48627084#5"/></vehicle>
    <vehicle id="car_15" type="car_type" depart="75.0" departLane="0" departSpeed="max"><route edges="1352054307 691146203#0 -48627084#7 -48627084#6 -48627084#5"/></vehicle>
    <vehicle id="car_16" type="car_type" depart="80.0" departLane="1" departSpeed="max"><route edges="1352054307 691146203#0 -48627084#7 -48627084#6 -48627084#5"/></vehicle>
    <vehicle id="car_17" type="car_type" depart="85.0" departLane="2" departSpeed="max"><route edges="1352054307 691146203#0 -48627084#7 -48627084#6 -48627084#5"/></vehicle>
    <vehicle id="car_18" type="car_type" depart="90.0" departLane="0" departSpeed="max"><route edges="1352054307 691146203#0 -48627084#7 -48627084#6 -48627084#5"/></vehicle>
    <vehicle id="car_19" type="car_type" depart="95.0" departLane="1" departSpeed="max"><route edges="1352054307 691146203#0 -48627084#7 -48627084#6 -48627084#5"/></vehicle>
</routes>
