<?xml version="1.0" encoding="UTF-8"?>
<!-- generated on 2026-02-12 12:43:53.490513 by randomTrips.py v1_6_0+0003-190709904e
  options: -n realworld.net.xml -r realworld.rou.xml -e 50 <doubleminus>vehicle-class passenger
-->
<routes xmlns:xsi="http://www.w3.org/2001/XMLSchema-instance" xsi:noNamespaceSchemaLocation="http://sumo.dlr.de/xsd/routes_file.xsd">
    <vType id="passenger" vClass="passenger"/>
    <trip id="0" depart="0.00" from="48627076#0" to="48627084#5" type="passenger"/>
    <trip id="1" depart="1.00" from="-212204482" to="-48627084#6" type="passenger"/>
    <trip id="2" depart="2.00" from="-1097920859" to="-48627075#0" type="passenger"/>
    <trip id="3" depart="3.00" from="48627079#2" to="212204470" type="passenger"/>
    <trip id="4" depart="4.00" from="212204485" to="-48627079#2" type="passenger"/>
    <trip id="5" depart="5.00" from="-48627079#3" to="-212204485" type="passenger"/>
    <trip id="6" depart="6.00" from="-48627075#1" to="-48627079#3" type="passenger"/>
    <trip id="7" depart="7.00" from="48627082#3" to="-212204474" type="passenger"/>
    <trip id="8" depart="8.00" from="183869709#0" to="48627082#5" type="passenger"/>
    <trip id="9" depart="9.00" from="-59151514#1" to="-48627082#2" type="passenger"/>
    <trip id="10" depart="10.00" from="48627084#2" to="1365868047#0" type="passenger"/>
    <trip id="11" depart="11.00" from="48627083#4" to="-48627081#1" type="passenger"/>
    <trip id="12" depart="12.00" from="172851184#0" to="544988421#0" type="passenger"/>
    <trip id="13" depart="13.00" from="-48627083#7" to="-48627083#0" type="passenger"/>
    <trip id="14" depart="14.00" from="-48627075#2" to="212204485" type="passenger"/>
    <trip id="15" depart="15.00" from="-48627082#0" to="-48627081#1" type="passenger"/>
    <trip id="16" depart="16.00" from="48627074#0" to="-544988421#1" type="passenger"/>
    <trip id="17" depart="17.00" from="212204474" to="-48627084#6" type="passenger"/>
    <trip id="18" depart="18.00" from="-48627075#2" to="-48627076#0" type="passenger"/>
    <trip id="19" depart="19.00" from="48627082#2" to="-48627084#0" type="passenger"/>
    <trip id="20" depart="20.00" from="-48627083#3" to="48627082#5" type="passenger"/>
    <trip id="21" depart="21.00" from="-48627083#8" to="48627083#7" type="passenger"/>
    <trip id="22" depart="22.00" from="-48627082#2" to="48627082#1" type="passenger"/>
    <trip id="23" depart="23.00" from="48627082#4" to="1445958063" type="passenger"/>
    <trip id="24" depart="24.00" from="48627081#0" to="691146203#2" type="passenger"/>
    <trip id="25" depart="25.00" from="48627084#3" to="59151514#0" type="passenger"/>
    <trip id="26" depart="26.00" from="1352054307" to="-48627082#1" type="passenger"/>
    <trip id="27" depart="27.00" from="172851185" to="172851188" type="passenger"/>
    <trip id="28" depart="28.00" from="-48627079#1" to="-212204478" type="passenger"/>
    <trip id="29" depart="29.00" from="-48627076#1" to="244286189#1" type="passenger"/>
    <trip id="30" depart="30.00" from="48627084#5" to="48627084#6" type="passenger"/>
    <trip id="31" depart="31.00" from="48627079#3" to="-48627079#3" type="passenger"/>
    <trip id="32" depart="32.00" from="59151514#0" to="48627083#5" type="passenger"/>
    <trip id="33" depart="33.00" from="1097920859" to="48627075#0" type="passenger"/>
    <trip id="34" depart="34.00" from="48627083#4" to="212564650#1" type="passenger"/>
    <trip id="35" depart="35.00" from="1356898655" to="-48627079#0" type="passenger"/>
    <trip id="36" depart="36.00" from="-48627082#6" to="-48627081#0" type="passenger"/>
    <trip id="37" depart="37.00" from="59151514#0" to="172851185" type="passenger"/>
    <trip id="38" depart="38.00" from="48627084#2" to="-48627083#6" type="passenger"/>
    <trip id="39" depart="39.00" from="-48627075#2" to="48627079#3" type="passenger"/>
    <trip id="40" depart="40.00" from="48627082#2" to="59151514#1" type="passenger"/>
    <trip id="41" depart="41.00" from="-48627081#0" to="244286189#1" type="passenger"/>
    <trip id="42" depart="42.00" from="172851175#1-AddedOnRampEdge" to="183869709#0-AddedOffRampEdge" type="passenger"/>
    <trip id="43" depart="43.00" from="48627081#0" to="-48627076#0" type="passenger"/>
    <trip id="44" depart="44.00" from="-48627083#4" to="1365868047#1" type="passenger"/>
    <trip id="45" depart="45.00" from="-212204478" to="-48627083#4" type="passenger"/>
    <trip id="46" depart="46.00" from="172851184#2" to="48627082#6" type="passenger"/>
    <trip id="47" depart="47.00" from="48627082#0" to="244286191" type="passenger"/>
    <trip id="48" depart="48.00" from="-48627084#4" to="-48627083#6" type="passenger"/>
    <trip id="49" depart="49.00" from="48627076#0" to="1352054307" type="passenger"/>
</routes>
